data original/sourcebus_11000.trafo_75615289_75615289/Loads.dss
New Load.75621107_nmi_elem_75621107 bus1=3106847.1 kV=0.23094010767585033 Vminpu=0.7 Vmaxpu=1.3 model=1 kW=0.0 kvar=0.0 Phases=1
New Load.75621117_nmi_elem_75621117 bus1=3106857.3 kV=0.23094010767585033 Vminpu=0.7 Vmaxpu=1.3 model=1 kW=0.0 kvar=0.0 Phases=1
New Load.75621123_nmi_elem_75621123 bus1=3106863.3 kV=0.23094010767585033 Vminpu=0.7 Vmaxpu=1.3 model=1 kW=0.0 kvar=0.0 Phases=1
New Load.75621125_nmi_elem_75621125 bus1=3106865.3 kV=0.23094010767585033 Vminpu=0.7 Vmaxpu=1.3 model=1 kW=0.0 kvar=0.0 Phases=1
New Load.75623268_nmi_elem_75623268 bus1=3107078.3 kV=0.23094010767585033 Vminpu=0.7 Vmaxpu=1.3 model=1 kW=0.0 kvar=0.0 Phases=1
New Load.NMI_elem_75615648 bus1=3106757.1.3 kV=0.4 Vminpu=0.7 Vmaxpu=1.3 model=1 kW=18.47526108607651 kvar=3.7515617710022333 Phases=2
New Load.NMI_elem_75615649 bus1=3106758.1 kV=0.23094010767585033 Vminpu=0.7 Vmaxpu=1.3 model=1 kW=7.861686852487282 kvar=1.5963836025900275 Phases=1
New Load.NMI_elem_75615650 bus1=3106759.1.3 kV=0.4 Vminpu=0.7 Vmaxpu=1.3 model=1 kW=18.70731161678959 kvar=3.798681640968241 Phases=2
New Load.NMI_elem_75615662 bus1=3106771.3 kV=0.23094010767585033 Vminpu=0.7 Vmaxpu=1.3 model=1 kW=5.0032832065017026 kvar=1.0159599866848414 Phases=1
New Load.NMI_elem_75615663 bus1=3106772.3 kV=0.23094010767585033 Vminpu=0.7 Vmaxpu=1.3 model=1 kW=5.320165270749662 kvar=1.0803056342299706 Phases=1
New Load.NMI_elem_75615682 bus1=3106778.1 kV=0.23094010767585033 Vminpu=0.7 Vmaxpu=1.3 model=1 kW=4.755129068218061 kvar=0.9655701397341796 Phases=1
New Load.NMI_elem_75615683 bus1=3106779.3 kV=0.23094010767585033 Vminpu=0.7 Vmaxpu=1.3 model=1 kW=4.8911892764145914 kvar=0.9931983433761509 Phases=1
New Load.NMI_elem_75615684 bus1=3106780.1 kV=0.23094010767585033 Vminpu=0.7 Vmaxpu=1.3 model=1 kW=9.127058168151393 kvar=1.8533282071534696 Phases=1
New Load.NMI_elem_75615685 bus1=3106781.3 kV=0.23094010767585033 Vminpu=0.7 Vmaxpu=1.3 model=1 kW=7.296903730555502 kvar=1.4816994983018688 Phases=1
New Load.NMI_elem_75615686 bus1=3106782.1 kV=0.23094010767585033 Vminpu=0.7 Vmaxpu=1.3 model=1 kW=5.152023758880149 kvar=1.0461630440327707 Phases=1
New Load.NMI_elem_75615687 bus1=3106783.3 kV=0.23094010767585033 Vminpu=0.7 Vmaxpu=1.3 model=1 kW=8.911492317058842 kvar=1.809555694152187 Phases=1
New Load.NMI_elem_75615688 bus1=3106784.3 kV=0.23094010767585033 Vminpu=0.7 Vmaxpu=1.3 model=1 kW=6.074645749573594 kvar=1.2335094297344604 Phases=1
New Load.NMI_elem_75615689 bus1=3106785.1 kV=0.23094010767585033 Vminpu=0.7 Vmaxpu=1.3 model=1 kW=6.602781838054808 kvar=1.3407520364939376 Phases=1
New Load.NMI_elem_75615690 bus1=3106786.3 kV=0.23094010767585033 Vminpu=0.7 Vmaxpu=1.3 model=1 kW=5.547650579587738 kvar=1.126498496356543 Phases=1
New Load.NMI_elem_75615691 bus1=3106787.3 kV=0.23094010767585033 Vminpu=0.7 Vmaxpu=1.3 model=1 kW=6.8593053159795305 kvar=1.3928413503425081 Phases=1
New Load.NMI_elem_75615692 bus1=3106788.3 kV=0.23094010767585033 Vminpu=0.7 Vmaxpu=1.3 model=1 kW=6.9757110729259395 kvar=1.4164785474381334 Phases=1
New Load.NMI_elem_75615693 bus1=3106789.1 kV=0.23094010767585033 Vminpu=0.7 Vmaxpu=1.3 model=1 kW=10.866674520682812 kvar=2.2065723737155114 Phases=1
New Load.NMI_elem_75615694 bus1=3106790.1 kV=0.23094010767585033 Vminpu=0.7 Vmaxpu=1.3 model=1 kW=2.3259555250654524 kvar=0.4723054136140528 Phases=1
New Load.NMI_elem_75615695 bus1=3106791.1 kV=0.23094010767585033 Vminpu=0.7 Vmaxpu=1.3 model=1 kW=10.140217832750082 kvar=2.059059051655276 Phases=1
New Load.NMI_elem_75615696 bus1=3106792.3 kV=0.23094010767585033 Vminpu=0.7 Vmaxpu=1.3 model=1 kW=5.547650579587738 kvar=1.126498496356543 Phases=1
New Load.NMI_elem_75615697 bus1=3106793.1 kV=0.23094010767585033 Vminpu=0.7 Vmaxpu=1.3 model=1 kW=4.15826546493176 kvar=0.8443718158696779 Phases=1
New Load.NMI_elem_75615698 bus1=3106794.1 kV=0.23094010767585033 Vminpu=0.7 Vmaxpu=1.3 model=1 kW=6.751522390433254 kvar=1.3709550938418669 Phases=1
New Load.NMI_elem_75615749 bus1=3106845.3 kV=0.23094010767585033 Vminpu=0.7 Vmaxpu=1.3 model=1 kW=6.887329106870731 kvar=1.3985318237867628 Phases=1
New Load.NMI_elem_75615750 bus1=3106846.1 kV=0.23094010767585033 Vminpu=0.7 Vmaxpu=1.3 model=1 kW=8.519162533855873 kvar=1.729889733848163 Phases=1
New Load.NMI_elem_75615751 bus1=3106847.1 kV=0.23094010767585033 Vminpu=0.7 Vmaxpu=1.3 model=1 kW=4.11084071454949 kvar=0.8347418095761523 Phases=1
New Load.NMI_elem_75615752 bus1=3106848.3 kV=0.23094010767585033 Vminpu=0.7 Vmaxpu=1.3 model=1 kW=1.823687108466175 kvar=0.3703154616606414 Phases=1
New Load.NMI_elem_75615761 bus1=3106857.3 kV=0.23094010767585033 Vminpu=0.7 Vmaxpu=1.3 model=1 kW=3.9707229935711785 kvar=0.8062896928232072 Phases=1
New Load.NMI_elem_75615762 bus1=3106858.1 kV=0.23094010767585033 Vminpu=0.7 Vmaxpu=1.3 model=1 kW=5.626268795747456 kvar=1.1424626060313698 Phases=1
New Load.NMI_elem_75615763 bus1=3106859.1 kV=0.23094010767585033 Vminpu=0.7 Vmaxpu=1.3 model=1 kW=2.9295399492405214 kvar=0.5948684583665889 Phases=1
New Load.NMI_elem_75615764 bus1=3106860.1 kV=0.23094010767585033 Vminpu=0.7 Vmaxpu=1.3 model=1 kW=5.453815868177875 kvar=1.1074445455366781 Phases=1
New Load.NMI_elem_75615765 bus1=3106861.3 kV=0.23094010767585033 Vminpu=0.7 Vmaxpu=1.3 model=1 kW=2.2203283073692095 kvar=0.45085689226215725 Phases=1
New Load.NMI_elem_75615766 bus1=3106862.1 kV=0.23094010767585033 Vminpu=0.7 Vmaxpu=1.3 model=1 kW=7.988870737524626 kvar=1.6222093919399396 Phases=1
New Load.NMI_elem_75615767 bus1=3106863.3 kV=0.23094010767585033 Vminpu=0.7 Vmaxpu=1.3 model=1 kW=4.477302825870522 kvar=0.9091551150741102 Phases=1
New Load.NMI_elem_75615768 bus1=3106864.3 kV=0.23094010767585033 Vminpu=0.7 Vmaxpu=1.3 model=1 kW=3.804737189551698 kvar=0.7725848377747531 Phases=1
New Load.NMI_elem_75615769 bus1=3106865.3 kV=0.23094010767585033 Vminpu=0.7 Vmaxpu=1.3 model=1 kW=10.946433655337888 kvar=2.222768156771898 Phases=1
New Load.NMI_elem_75615770 bus1=3106866.3 kV=0.23094010767585033 Vminpu=0.7 Vmaxpu=1.3 model=1 kW=2.3410450688564537 kvar=0.47536947616583153 Phases=1
New Load.NMI_elem_75615771 bus1=3106867.3 kV=0.23094010767585033 Vminpu=0.7 Vmaxpu=1.3 model=1 kW=2.1405689671345196 kvar=0.43466106746104927 Phases=1
New Load.NMI_elem_75615779 bus1=3106875.1 kV=0.23094010767585033 Vminpu=0.7 Vmaxpu=1.3 model=1 kW=5.547650579587738 kvar=1.126498496356543 Phases=1
New Load.NMI_elem_75615780 bus1=3106876.1 kV=0.23094010767585033 Vminpu=0.7 Vmaxpu=1.3 model=1 kW=11.603910159024942 kvar=2.356274455008919 Phases=1
New Load.NMI_elem_75615781 bus1=3106877.3 kV=0.23094010767585033 Vminpu=0.7 Vmaxpu=1.3 model=1 kW=4.477302825870522 kvar=0.9091551150741102 Phases=1
New Load.NMI_elem_75615782 bus1=3106878.3 kV=0.23094010767585033 Vminpu=0.7 Vmaxpu=1.3 model=1 kW=2.304398857724351 kvar=0.4679281456160358 Phases=1
New Load.NMI_elem_75615783 bus1=3106879.3 kV=0.23094010767585033 Vminpu=0.7 Vmaxpu=1.3 model=1 kW=5.547650579587738 kvar=1.126498496356543 Phases=1
New Load.NMI_elem_75616983 bus1=3106930.3 kV=0.23094010767585033 Vminpu=0.7 Vmaxpu=1.3 model=1 kW=3.065346460098383 kvar=0.6224451465667636 Phases=1
New Load.NMI_elem_75616992 bus1=3106931.2 kV=0.23094010767585033 Vminpu=0.7 Vmaxpu=1.3 model=1 kW=10.998169821420225 kvar=2.2332736333629155 Phases=1
New Load.NMI_elem_75616997 bus1=3106932.1 kV=0.23094010767585033 Vminpu=0.7 Vmaxpu=1.3 model=1 kW=5.686626970911463 kvar=1.1547188562384858 Phases=1
New Load.NMI_elem_75617025 bus1=3106937.1 kV=0.23094010767585033 Vminpu=0.7 Vmaxpu=1.3 model=1 kW=1.9163804902214499 kvar=0.389137655609504 Phases=1
New Load.NMI_elem_75617912 bus1=3107078.3 kV=0.23094010767585033 Vminpu=0.7 Vmaxpu=1.3 model=1 kW=8.094497544061639 kvar=1.6436578298023927 Phases=1
New Load.NMI_elem_75618535 bus1=3107150.1 kV=0.23094010767585033 Vminpu=0.7 Vmaxpu=1.3 model=1 kW=2.651460009554314 kvar=0.538401918264723 Phases=1
New Load.NMI_elem_75618981 bus1=3107214.3 kV=0.23094010767585033 Vminpu=0.7 Vmaxpu=1.3 model=1 kW=7.143852173636222 kvar=1.4506210541458906 Phases=1
New Load.NMI_elem_75619365 bus1=3107254.1 kV=0.23094010767585033 Vminpu=0.7 Vmaxpu=1.3 model=1 kW=5.547650579587738 kvar=1.126498496356543 Phases=1
New Load.NMI_elem_75619384 bus1=3107259.3 kV=0.23094010767585033 Vminpu=0.7 Vmaxpu=1.3 model=1 kW=5.547650579587738 kvar=1.126498496356543 Phases=1
New Load.NMI_elem_75619387 bus1=3107261.1 kV=0.23094010767585033 Vminpu=0.7 Vmaxpu=1.3 model=1 kW=5.547650579587738 kvar=1.126498496356543 Phases=1
New Load.NMI_elem_75619395 bus1=3107263.3 kV=0.23094010767585033 Vminpu=0.7 Vmaxpu=1.3 model=1 kW=5.547650579587738 kvar=1.126498496356543 Phases=1
New Load.NMI_elem_75619452 bus1=3107274.3 kV=0.23094010767585033 Vminpu=0.7 Vmaxpu=1.3 model=1 kW=5.547650579587738 kvar=1.126498496356543 Phases=1
New Load.NMI_elem_75619464 bus1=3107276.1 kV=0.23094010767585033 Vminpu=0.7 Vmaxpu=1.3 model=1 kW=5.547650579587738 kvar=1.126498496356543 Phases=1
New Load.NMI_elem_75619497 bus1=3107280.3 kV=0.23094010767585033 Vminpu=0.7 Vmaxpu=1.3 model=1 kW=5.547650579587738 kvar=1.126498496356543 Phases=1
New Load.NMI_elem_75619516 bus1=3107283.3 kV=0.23094010767585033 Vminpu=0.7 Vmaxpu=1.3 model=1 kW=5.547650579587738 kvar=1.126498496356543 Phases=1
New Load.NMI_elem_75619565 bus1=3107293.1 kV=0.23094010767585033 Vminpu=0.7 Vmaxpu=1.3 model=1 kW=5.547650579587738 kvar=1.126498496356543 Phases=1
New Load.NMI_elem_75619568 bus1=3107294.1 kV=0.23094010767585033 Vminpu=0.7 Vmaxpu=1.3 model=1 kW=5.547650579587738 kvar=1.126498496356543 Phases=1
New Load.NMI_elem_75619585 bus1=3107297.1 kV=0.23094010767585033 Vminpu=0.7 Vmaxpu=1.3 model=1 kW=5.547650579587738 kvar=1.126498496356543 Phases=1
New Load.NMI_elem_75619636 bus1=3107308.3 kV=0.23094010767585033 Vminpu=0.7 Vmaxpu=1.3 model=1 kW=5.547650579587738 kvar=1.126498496356543 Phases=1
New Load.NMI_elem_75619720 bus1=3107316.3 kV=0.23094010767585033 Vminpu=0.7 Vmaxpu=1.3 model=1 kW=5.547650579587738 kvar=1.126498496356543 Phases=1
New Load.NMI_elem_75619724 bus1=3107318.3 kV=0.23094010767585033 Vminpu=0.7 Vmaxpu=1.3 model=1 kW=5.547650579587738 kvar=1.126498496356543 Phases=1
New Load.NMI_elem_75619758 bus1=3107325.1 kV=0.23094010767585033 Vminpu=0.7 Vmaxpu=1.3 model=1 kW=5.547650579587738 kvar=1.126498496356543 Phases=1
New Load.NMI_elem_75619760 bus1=3107326.2 kV=0.23094010767585033 Vminpu=0.7 Vmaxpu=1.3 model=1 kW=5.547650579587738 kvar=1.126498496356543 Phases=1
New Load.NMI_elem_75619767 bus1=3107329.1 kV=0.23094010767585033 Vminpu=0.7 Vmaxpu=1.3 model=1 kW=5.547650579587738 kvar=1.126498496356543 Phases=1
New Load.NMI_elem_75619799 bus1=3107336.1 kV=0.23094010767585033 Vminpu=0.7 Vmaxpu=1.3 model=1 kW=4.755129068218061 kvar=0.9655701397341796 Phases=1
New Load.NMI_elem_75619820 bus1=3107341.3 kV=0.23094010767585033 Vminpu=0.7 Vmaxpu=1.3 model=1 kW=5.547650579587738 kvar=1.126498496356543 Phases=1
New Load.NMI_elem_75619840 bus1=3107345.3 kV=0.23094010767585033 Vminpu=0.7 Vmaxpu=1.3 model=1 kW=5.547650579587738 kvar=1.126498496356543 Phases=1
New Load.NMI_elem_75619849 bus1=3107347.1 kV=0.23094010767585033 Vminpu=0.7 Vmaxpu=1.3 model=1 kW=5.547650579587738 kvar=1.126498496356543 Phases=1
New Load.NMI_elem_75619869 bus1=3107350.1 kV=0.23094010767585033 Vminpu=0.7 Vmaxpu=1.3 model=1 kW=5.547650579587738 kvar=1.126498496356543 Phases=1
New Load.NMI_elem_75619872 bus1=3107351.3 kV=0.23094010767585033 Vminpu=0.7 Vmaxpu=1.3 model=1 kW=5.547650579587738 kvar=1.126498496356543 Phases=1
New Load.NMI_elem_75619938 bus1=3107359.1 kV=0.23094010767585033 Vminpu=0.7 Vmaxpu=1.3 model=1 kW=5.547650579587738 kvar=1.126498496356543 Phases=1
New Load.NMI_elem_75619987 bus1=3107366.1 kV=0.23094010767585033 Vminpu=0.7 Vmaxpu=1.3 model=1 kW=5.547650579587738 kvar=1.126498496356543 Phases=1
New Load.NMI_elem_75620057 bus1=3107380.1 kV=0.23094010767585033 Vminpu=0.7 Vmaxpu=1.3 model=1 kW=5.547650579587738 kvar=1.126498496356543 Phases=1
New Load.NMI_elem_75620072 bus1=3107381.3 kV=0.23094010767585033 Vminpu=0.7 Vmaxpu=1.3 model=1 kW=5.547650579587738 kvar=1.126498496356543 Phases=1
New Load.NMI_elem_75620082 bus1=3107382.3 kV=0.23094010767585033 Vminpu=0.7 Vmaxpu=1.3 model=1 kW=5.547650579587738 kvar=1.126498496356543 Phases=1
New Load.NMI_elem_75620088 bus1=3107384.3 kV=0.23094010767585033 Vminpu=0.7 Vmaxpu=1.3 model=1 kW=5.547650579587738 kvar=1.126498496356543 Phases=1
New Load.NMI_elem_75620142 bus1=3107394.3 kV=0.23094010767585033 Vminpu=0.7 Vmaxpu=1.3 model=1 kW=5.547650579587738 kvar=1.126498496356543 Phases=1
New Load.NMI_elem_75620225 bus1=3107404.1 kV=0.23094010767585033 Vminpu=0.7 Vmaxpu=1.3 model=1 kW=5.547650579587738 kvar=1.126498496356543 Phases=1
New Load.NMI_elem_75620258 bus1=3107413.1 kV=0.23094010767585033 Vminpu=0.7 Vmaxpu=1.3 model=1 kW=5.547650579587738 kvar=1.126498496356543 Phases=1
New Load.NMI_elem_75620287 bus1=3107415.1 kV=0.23094010767585033 Vminpu=0.7 Vmaxpu=1.3 model=1 kW=5.547650579587738 kvar=1.126498496356543 Phases=1
New Load.NMI_elem_75620290 bus1=3107416.1 kV=0.23094010767585033 Vminpu=0.7 Vmaxpu=1.3 model=1 kW=5.547650579587738 kvar=1.126498496356543 Phases=1
New Load.NMI_elem_75620300 bus1=3107419.1 kV=0.23094010767585033 Vminpu=0.7 Vmaxpu=1.3 model=1 kW=5.547650579587738 kvar=1.126498496356543 Phases=1
New Load.NMI_elem_75620362 bus1=3107428.3 kV=0.23094010767585033 Vminpu=0.7 Vmaxpu=1.3 model=1 kW=5.547650579587738 kvar=1.126498496356543 Phases=1
New Load.NMI_elem_75620407 bus1=3107435.1 kV=0.23094010767585033 Vminpu=0.7 Vmaxpu=1.3 model=1 kW=5.547650579587738 kvar=1.126498496356543 Phases=1
New Load.NMI_elem_75620413 bus1=3107437.1 kV=0.23094010767585033 Vminpu=0.7 Vmaxpu=1.3 model=1 kW=5.547650579587738 kvar=1.126498496356543 Phases=1
New Load.NMI_elem_75620482 bus1=3107444.1 kV=0.23094010767585033 Vminpu=0.7 Vmaxpu=1.3 model=1 kW=5.547650579587738 kvar=1.126498496356543 Phases=1
New Load.NMI_elem_75620498 bus1=3107446.3 kV=0.23094010767585033 Vminpu=0.7 Vmaxpu=1.3 model=1 kW=5.547650579587738 kvar=1.126498496356543 Phases=1
New Load.NMI_elem_75620516 bus1=3107449.3 kV=0.23094010767585033 Vminpu=0.7 Vmaxpu=1.3 model=1 kW=5.547650579587738 kvar=1.126498496356543 Phases=1
New Load.NMI_elem_75620547 bus1=3107456.1 kV=0.23094010767585033 Vminpu=0.7 Vmaxpu=1.3 model=1 kW=5.547650579587738 kvar=1.126498496356543 Phases=1
New Load.NMI_elem_75620566 bus1=3107461.3 kV=0.23094010767585033 Vminpu=0.7 Vmaxpu=1.3 model=1 kW=5.547650579587738 kvar=1.126498496356543 Phases=1
New Load.NMI_elem_75620582 bus1=3107462.3 kV=0.23094010767585033 Vminpu=0.7 Vmaxpu=1.3 model=1 kW=5.547650579587738 kvar=1.126498496356543 Phases=1
New Load.NMI_elem_75620585 bus1=3107463.3 kV=0.23094010767585033 Vminpu=0.7 Vmaxpu=1.3 model=1 kW=5.547650579587738 kvar=1.126498496356543 Phases=1
